/*--------------------------------*- C++ -*----------------------------------*\
  =========                 |
  \\      /  F ield         | OpenFOAM: The Open Source CFD Toolbox
   \\    /   O peration     | Website:  https://openfoam.org
    \\  /    A nd           | Version:  8
     \\/     M anipulation  |
\*---------------------------------------------------------------------------*/
FoamFile
{
    version     2.0;
    format      ascii;
    class       dictionary;
    object      fvSolution;
}
// * * * * * * * * * * * * * * * * * * * * * * * * * * * * * * * * * * * * * //

solvers
{
    "(rho|rhoFinal)"
    {
        solver                  PCG
        preconditioner          DIC;
        tolerance               1e-07;
        relTol                  0;
        minIter                 3;
    }

    p_rgh
    {
        solver                  GAMG;
        tolerance               1e-06;
        relTol                  0.01;
        smoother                GaussSeidel;
        maxIter                 100;
        minIter                 3;
    }

    p_rghFinal
    {
        $p_rgh;
        relTol                  0;
    }

    "(U|h|e|k|omega)"
    {
        solver                  PBiCGStab;
        preconditioner          DILU;
        tolerance               1e-08;
        relTol                  0.001;
        minIter                 3;
    }

    "(U|h|e|k|omega)Final"
    {
        $U;
        relTol                  0;
    }
}

PIMPLE
{
    momentumPredictor           yes;
    nCorrectors                 2;
    nNonOrthogonalCorrectors    1;
    pRefCell                    0;
    pRefValue                   0;
}

relaxationFactors
{
    equations
    {
        ".*"                    1;
    }
}

// ************************************************************************* //
