/*--------------------------------*- C++ -*----------------------------------*\
  =========                 |
  \\      /  F ield         | OpenFOAM: The Open Source CFD Toolbox
   \\    /   O peration     | Website:  https://openfoam.org
    \\  /    A nd           | Version:  8
     \\/     M anipulation  |
\*---------------------------------------------------------------------------*/
FoamFile
{
    version     2.0;
    format      ascii;
    class       dictionary;
    object      fvSchemes;
}
// * * * * * * * * * * * * * * * * * * * * * * * * * * * * * * * * * * * * * //

ddtSchemes
{
    default             CrankNicolson 0.5;
}

gradSchemes
{
    default             Gauss linear;
}

divSchemes
{
    default             none;
}

laplacianSchemes
{
    default             Gauss linear limited 1;
}

interpolationSchemes
{
    default             linear;
}

snGradSchemes
{
    default             limited 1;
}

// ************************************************************************* //
