/*--------------------------------*- C++ -*----------------------------------*\
  =========                 |
  \\      /  F ield         | OpenFOAM: The Open Source CFD Toolbox
   \\    /   O peration     | Website:  https://openfoam.org
    \\  /    A nd           | Version:  8
     \\/     M anipulation  |
\*---------------------------------------------------------------------------*/
FoamFile
{
    version     2.0;
    format      ascii;
    class       dictionary;
    object      controlDict;
}
// * * * * * * * * * * * * * * * * * * * * * * * * * * * * * * * * * * * * * //

application         chtMultiRegionFoam;

startFrom           latestTime;

startTime           0;

stopAt              endTime;

endTime             600;

deltaT              0.01;

writeControl        runTime;

writeInterval       5;

purgeWrite          0;

writeFormat         ascii;

writePrecision      8;

writeCompression    off;

timeFormat          general;

timePrecision       6;

runTimeModifiable   true;

adjustTimeStep      yes;

maxCo               1.0;

maxDeltaT           0.05;

functions
{
}

// ************************************************************************* //
