/*--------------------------------*- C++ -*----------------------------------*\
  =========                 |
  \\      /  F ield         | OpenFOAM: The Open Source CFD Toolbox
   \\    /   O peration     | Website:  https://openfoam.org
    \\  /    A nd           | Version:  8
     \\/     M anipulation  |
\*---------------------------------------------------------------------------*/
FoamFile
{
    version     2.0;
    format      ascii;
    class       dictionary;
    object      fvSchemes;
}
// * * * * * * * * * * * * * * * * * * * * * * * * * * * * * * * * * * * * * //

ddtSchemes
{
    default             backward;
}

gradSchemes
{
    default             leastSquares;
}

divSchemes
{
    default             none;

    div(phi,U)          Gauss linear;

    div(phi,k)          Gauss limitedLinear 1;
    div(phi,omega)      Gauss limitedLinear 1;

    div(phi,e)          Gauss linear;
    div(phi,h)          Gauss linear;
    div(phi,K)          Gauss linear;
    div(phi,Ekp)        Gauss linear;

    div(phid,p)                             Gauss upwind;
    div((phi|interpolate(rho)),p)           Gauss upwind;

    div(((rho*nuEff)*dev2(T(grad(U)))))     Gauss linear;
}

laplacianSchemes
{
    default             Gauss linear limited 1;
}

interpolationSchemes
{
    default             linear;
}

snGradSchemes
{
    default             limited 1;
}

fluxRequired
{
    default             no;
    p                   ;
}

wallDist
{
    method  meshWave;
}

// ************************************************************************* //
