/*--------------------------------*- C++ -*----------------------------------*\
  =========                 |
  \\      /  F ield         | OpenFOAM: The Open Source CFD Toolbox
   \\    /   O peration     | Website:  https://openfoam.org
    \\  /    A nd           | Version:  8
     \\/     M anipulation  |
\*---------------------------------------------------------------------------*/
FoamFile
{
    version     2.0;
    format      ascii;
    class       dictionary;
    object      topoSetDict;
}

// * * * * * * * * * * * * * * * * * * * * * * * * * * * * * * * * * * * * * //
#inputSyntax slash;

#include "$FOAM_CASE/constant/parameters"

r                   #calc "0.5*$d";

actions
(
    
    //Cylinder
    {
        name        cylinder;
        type        cellSet;
        action      new;
        source      cylinderToCell;
        sourceInfo
        {
            p1      (0 0 0);
            p2      (0 0 $L);
            radius  $r;
        }
    }
    {
        name        solid;
        type        cellZoneSet;
        action      new;
        source      setToCellZone;
        sourceInfo
        {
            set     cylinder;
        }
    }

    //Border
    {
        name        cylinder;
        type        cellSet;
        action      invert;
    }
    {
        name        fluid;
        type        cellZoneSet;
        action      new;
        source      setToCellZone;
        sourceInfo
        {
            set     cylinder;
        }
    }

);

// ************************************************************************* //
